Version 4
SHEET 1 3352 680
WIRE 352 48 112 48
WIRE 480 48 352 48
WIRE 688 48 592 48
WIRE 112 80 112 48
WIRE 352 112 352 48
WIRE 688 112 688 48
WIRE 64 160 0 160
WIRE 0 208 0 160
WIRE 0 320 0 288
WIRE 112 320 112 176
WIRE 112 320 0 320
WIRE 352 320 352 176
WIRE 352 320 112 320
WIRE 688 320 688 192
WIRE 688 320 352 320
FLAG 688 320 0
FLAG 352 48 vout
SYMBOL nmos 64 80 R0
SYMATTR InstName M1
SYMATTR Value TT69
SYMBOL cap 336 112 R0
SYMATTR InstName C1
SYMATTR Value 1n
SYMBOL voltage 0 192 R0
WINDOW 123 0 0 Left 2
WINDOW 39 0 0 Left 2
SYMATTR InstName V1
SYMATTR Value PULSE(0 3.3 10n 1f 1f 10m 10m 2)
SYMBOL Chaves\\Chave4 528 48 R0
SYMATTR InstName U1
SYMATTR SpiceLine t={10ns}
SYMBOL voltage 688 96 R0
WINDOW 123 0 0 Left 2
WINDOW 39 0 0 Left 2
SYMATTR InstName V2
SYMATTR Value 5
TEXT 0 352 Left 2 !.model TT69 NMOS(Level=3 W=.12 L=2u Kp=1.073u Vto=1.73 Tox=2u Uo=600 Phi=.6 Rs=20m Rd=.5489 Rds=48MEG Cgso=73.61p Cgdo=6.487p Cbd=74.46p Mj=.5 Pb=.8 Fc=.5 Rg=546.2 Gamma=0 Delta=0 Eta=0 Theta=0 Kappa=0.2 Vmax=0 Xj=0 Is=10f N=1 Rb=1m mfg=Philips Vds=60 Ron=6 Qg=-)
TEXT 0 384 Left 2 !.tran 0 1u 10n 100p
